* NGSPICE file created from dff_ram_8x72.ext - technology: sky130A

* Black-box entry subcircuit for sky130_fd_sc_hd__clkbuf_1 abstract view
.subckt sky130_fd_sc_hd__clkbuf_1 A VGND VNB VPB VPWR X
.ends

* Black-box entry subcircuit for sky130_fd_sc_hd__buf_2 abstract view
.subckt sky130_fd_sc_hd__buf_2 A VGND VNB VPB VPWR X
.ends

* Black-box entry subcircuit for sky130_ef_sc_hd__decap_12 abstract view
.subckt sky130_ef_sc_hd__decap_12 VPWR VGND VPB VNB
.ends

* Black-box entry subcircuit for sky130_fd_sc_hd__mux2_1 abstract view
.subckt sky130_fd_sc_hd__mux2_1 A0 A1 S VGND VNB VPB VPWR X
.ends

* Black-box entry subcircuit for sky130_fd_sc_hd__fill_2 abstract view
.subckt sky130_fd_sc_hd__fill_2 VGND VNB VPB VPWR
.ends

* Black-box entry subcircuit for sky130_fd_sc_hd__decap_8 abstract view
.subckt sky130_fd_sc_hd__decap_8 VGND VNB VPB VPWR
.ends

* Black-box entry subcircuit for sky130_fd_sc_hd__clkbuf_4 abstract view
.subckt sky130_fd_sc_hd__clkbuf_4 A VGND VNB VPB VPWR X
.ends

* Black-box entry subcircuit for sky130_fd_sc_hd__tapvpwrvgnd_1 abstract view
.subckt sky130_fd_sc_hd__tapvpwrvgnd_1 VGND VPWR
.ends

* Black-box entry subcircuit for sky130_fd_sc_hd__decap_4 abstract view
.subckt sky130_fd_sc_hd__decap_4 VGND VNB VPB VPWR
.ends

* Black-box entry subcircuit for sky130_fd_sc_hd__dfxtp_1 abstract view
.subckt sky130_fd_sc_hd__dfxtp_1 CLK D VGND VNB VPB VPWR Q
.ends

* Black-box entry subcircuit for sky130_fd_sc_hd__decap_3 abstract view
.subckt sky130_fd_sc_hd__decap_3 VGND VNB VPB VPWR
.ends

* Black-box entry subcircuit for sky130_fd_sc_hd__dlygate4sd3_1 abstract view
.subckt sky130_fd_sc_hd__dlygate4sd3_1 A VGND VNB VPB VPWR X
.ends

* Black-box entry subcircuit for sky130_fd_sc_hd__fill_1 abstract view
.subckt sky130_fd_sc_hd__fill_1 VGND VNB VPB VPWR
.ends

* Black-box entry subcircuit for sky130_fd_sc_hd__o22a_1 abstract view
.subckt sky130_fd_sc_hd__o22a_1 A1 A2 B1 B2 VGND VNB VPB VPWR X
.ends

* Black-box entry subcircuit for sky130_fd_sc_hd__a221o_1 abstract view
.subckt sky130_fd_sc_hd__a221o_1 A1 A2 B1 B2 C1 VGND VNB VPB VPWR X
.ends

* Black-box entry subcircuit for sky130_fd_sc_hd__decap_6 abstract view
.subckt sky130_fd_sc_hd__decap_6 VGND VNB VPB VPWR
.ends

* Black-box entry subcircuit for sky130_fd_sc_hd__dlymetal6s2s_1 abstract view
.subckt sky130_fd_sc_hd__dlymetal6s2s_1 A VGND VNB VPB VPWR X
.ends

* Black-box entry subcircuit for sky130_fd_sc_hd__diode_2 abstract view
.subckt sky130_fd_sc_hd__diode_2 DIODE VGND VNB VPB VPWR
.ends

* Black-box entry subcircuit for sky130_fd_sc_hd__a22o_1 abstract view
.subckt sky130_fd_sc_hd__a22o_1 A1 A2 B1 B2 VGND VNB VPB VPWR X
.ends

* Black-box entry subcircuit for sky130_fd_sc_hd__buf_1 abstract view
.subckt sky130_fd_sc_hd__buf_1 A VGND VNB VPB VPWR X
.ends

* Black-box entry subcircuit for sky130_fd_sc_hd__clkbuf_16 abstract view
.subckt sky130_fd_sc_hd__clkbuf_16 A VGND VNB VPB VPWR X
.ends

* Black-box entry subcircuit for sky130_fd_sc_hd__buf_4 abstract view
.subckt sky130_fd_sc_hd__buf_4 A VGND VNB VPB VPWR X
.ends

* Black-box entry subcircuit for sky130_fd_sc_hd__clkbuf_8 abstract view
.subckt sky130_fd_sc_hd__clkbuf_8 A VGND VNB VPB VPWR X
.ends

* Black-box entry subcircuit for sky130_fd_sc_hd__mux4_1 abstract view
.subckt sky130_fd_sc_hd__mux4_1 A0 A1 A2 A3 S0 S1 VGND VNB VPB VPWR X
.ends

* Black-box entry subcircuit for sky130_fd_sc_hd__and3_1 abstract view
.subckt sky130_fd_sc_hd__and3_1 A B C VGND VNB VPB VPWR X
.ends

* Black-box entry subcircuit for sky130_fd_sc_hd__clkbuf_2 abstract view
.subckt sky130_fd_sc_hd__clkbuf_2 A VGND VNB VPB VPWR X
.ends

* Black-box entry subcircuit for sky130_fd_sc_hd__a21o_1 abstract view
.subckt sky130_fd_sc_hd__a21o_1 A1 A2 B1 VGND VNB VPB VPWR X
.ends

* Black-box entry subcircuit for sky130_fd_sc_hd__nand2_1 abstract view
.subckt sky130_fd_sc_hd__nand2_1 A B VGND VNB VPB VPWR Y
.ends

* Black-box entry subcircuit for sky130_fd_sc_hd__nor2_1 abstract view
.subckt sky130_fd_sc_hd__nor2_1 A B VGND VNB VPB VPWR Y
.ends

* Black-box entry subcircuit for sky130_fd_sc_hd__and3b_1 abstract view
.subckt sky130_fd_sc_hd__and3b_1 A_N B C VGND VNB VPB VPWR X
.ends

* Black-box entry subcircuit for sky130_fd_sc_hd__and2b_1 abstract view
.subckt sky130_fd_sc_hd__and2b_1 A_N B VGND VNB VPB VPWR X
.ends

* Black-box entry subcircuit for sky130_fd_sc_hd__o32a_1 abstract view
.subckt sky130_fd_sc_hd__o32a_1 A1 A2 A3 B1 B2 VGND VNB VPB VPWR X
.ends

* Black-box entry subcircuit for sky130_fd_sc_hd__or2b_2 abstract view
.subckt sky130_fd_sc_hd__or2b_2 A B_N VGND VNB VPB VPWR X
.ends

* Black-box entry subcircuit for sky130_fd_sc_hd__or4b_1 abstract view
.subckt sky130_fd_sc_hd__or4b_1 A B C D_N VGND VNB VPB VPWR X
.ends

* Black-box entry subcircuit for sky130_fd_sc_hd__or3b_1 abstract view
.subckt sky130_fd_sc_hd__or3b_1 A B C_N VGND VNB VPB VPWR X
.ends

* Black-box entry subcircuit for sky130_fd_sc_hd__or4_1 abstract view
.subckt sky130_fd_sc_hd__or4_1 A B C D VGND VNB VPB VPWR X
.ends

* Black-box entry subcircuit for sky130_fd_sc_hd__and4bb_1 abstract view
.subckt sky130_fd_sc_hd__and4bb_1 A_N B_N C D VGND VNB VPB VPWR X
.ends

* Black-box entry subcircuit for sky130_fd_sc_hd__and2_1 abstract view
.subckt sky130_fd_sc_hd__and2_1 A B VGND VNB VPB VPWR X
.ends

.subckt dff_ram_8x72 VGND VPWR address[0] address[1] address[2] clk rdata[0] rdata[10]
+ rdata[11] rdata[12] rdata[13] rdata[14] rdata[15] rdata[16] rdata[17] rdata[18]
+ rdata[19] rdata[1] rdata[20] rdata[21] rdata[22] rdata[23] rdata[24] rdata[25] rdata[26]
+ rdata[27] rdata[28] rdata[29] rdata[2] rdata[30] rdata[31] rdata[32] rdata[33] rdata[34]
+ rdata[35] rdata[36] rdata[37] rdata[38] rdata[39] rdata[3] rdata[40] rdata[41] rdata[42]
+ rdata[43] rdata[44] rdata[45] rdata[46] rdata[47] rdata[48] rdata[49] rdata[4] rdata[50]
+ rdata[51] rdata[52] rdata[53] rdata[54] rdata[55] rdata[56] rdata[57] rdata[58]
+ rdata[59] rdata[5] rdata[60] rdata[61] rdata[62] rdata[63] rdata[64] rdata[65] rdata[66]
+ rdata[67] rdata[68] rdata[69] rdata[6] rdata[70] rdata[71] rdata[7] rdata[8] rdata[9]
+ wdata[0] wdata[10] wdata[11] wdata[12] wdata[13] wdata[14] wdata[15] wdata[16] wdata[17]
+ wdata[18] wdata[19] wdata[1] wdata[20] wdata[21] wdata[22] wdata[23] wdata[24] wdata[25]
+ wdata[26] wdata[27] wdata[28] wdata[29] wdata[2] wdata[30] wdata[31] wdata[32] wdata[33]
+ wdata[34] wdata[35] wdata[36] wdata[37] wdata[38] wdata[39] wdata[3] wdata[40] wdata[41]
+ wdata[42] wdata[43] wdata[44] wdata[45] wdata[46] wdata[47] wdata[48] wdata[49]
+ wdata[4] wdata[50] wdata[51] wdata[52] wdata[53] wdata[54] wdata[55] wdata[56] wdata[57]
+ wdata[58] wdata[59] wdata[5] wdata[60] wdata[61] wdata[62] wdata[63] wdata[64] wdata[65]
+ wdata[66] wdata[67] wdata[68] wdata[69] wdata[6] wdata[70] wdata[71] wdata[7] wdata[8]
+ wdata[9] wr_n
X_3155_ _1495_ VGND VGND VPWR VPWR _0261_ sky130_fd_sc_hd__clkbuf_1
X_2106_ _0753_ VGND VGND VPWR VPWR net95 sky130_fd_sc_hd__clkbuf_1
X_3086_ _1077_ VGND VGND VPWR VPWR _1448_ sky130_fd_sc_hd__buf_2
XFILLER_0_89_461 VPWR VGND VPWR VGND sky130_ef_sc_hd__decap_12
XFILLER_0_43_92 VPWR VGND VPWR VGND sky130_ef_sc_hd__decap_12
X_3988_ _0954_ net786 _1947_ VGND VGND VPWR VPWR _1951_ sky130_fd_sc_hd__mux2_1
XFILLER_0_91_169 VGND VGND VPWR VPWR sky130_fd_sc_hd__fill_2
XFILLER_0_91_158 VGND VGND VPWR VPWR sky130_fd_sc_hd__decap_8
X_2939_ _1036_ VGND VGND VPWR VPWR _1339_ sky130_fd_sc_hd__clkbuf_4
XTAP_TAPCELL_ROW_20_389 VGND VPWR sky130_fd_sc_hd__tapvpwrvgnd_1
XFILLER_0_32_247 VGND VGND VPWR VPWR sky130_fd_sc_hd__decap_4
X_4609_ clknet_leaf_15_clk _0445_ VGND VGND VPWR VPWR instance_1.mem\[3\]\[43\] sky130_fd_sc_hd__dfxtp_1
XFILLER_0_4_193 VGND VGND VPWR VPWR sky130_fd_sc_hd__decap_3
Xhold351 instance_1.mem\[2\]\[45\] VGND VGND VPWR VPWR net499 sky130_fd_sc_hd__dlygate4sd3_1
Xhold340 instance_0.mem\[3\]\[9\] VGND VGND VPWR VPWR net488 sky130_fd_sc_hd__dlygate4sd3_1
Xhold362 instance_1.mem\[1\]\[12\] VGND VGND VPWR VPWR net510 sky130_fd_sc_hd__dlygate4sd3_1
Xhold384 instance_0.mem\[3\]\[58\] VGND VGND VPWR VPWR net532 sky130_fd_sc_hd__dlygate4sd3_1
Xhold395 instance_1.mem\[2\]\[56\] VGND VGND VPWR VPWR net543 sky130_fd_sc_hd__dlygate4sd3_1
Xhold373 instance_0.mem\[1\]\[50\] VGND VGND VPWR VPWR net521 sky130_fd_sc_hd__dlygate4sd3_1
XTAP_TAPCELL_ROW_56_732 VGND VPWR sky130_fd_sc_hd__tapvpwrvgnd_1
XTAP_TAPCELL_ROW_28_467 VGND VPWR sky130_fd_sc_hd__tapvpwrvgnd_1
XFILLER_0_82_125 VGND VGND VPWR VPWR sky130_fd_sc_hd__decap_8
XTAP_TAPCELL_ROW_11_301 VGND VPWR sky130_fd_sc_hd__tapvpwrvgnd_1
XFILLER_0_23_203 VGND VGND VPWR VPWR sky130_fd_sc_hd__decap_4
XFILLER_0_48_37 VGND VGND VPWR VPWR sky130_fd_sc_hd__fill_1
XFILLER_0_3_39 VPWR VGND VPWR VGND sky130_ef_sc_hd__decap_12
XFILLER_0_86_475 VGND VGND VPWR VPWR sky130_fd_sc_hd__fill_1
X_3911_ _1908_ VGND VGND VPWR VPWR _0604_ sky130_fd_sc_hd__clkbuf_1
X_3842_ net733 net23 _1867_ VGND VGND VPWR VPWR _1871_ sky130_fd_sc_hd__mux2_1
X_3773_ net704 net68 _1830_ VGND VGND VPWR VPWR _1833_ sky130_fd_sc_hd__mux2_1
XFILLER_0_54_361 VGND VGND VPWR VPWR sky130_fd_sc_hd__decap_3
XFILLER_0_89_55 VGND VGND VPWR VPWR sky130_fd_sc_hd__fill_1
X_2724_ net349 _1171_ _1175_ _1176_ VGND VGND VPWR VPWR _0149_ sky130_fd_sc_hd__o22a_1
X_2655_ net215 _1104_ _1122_ _1124_ VGND VGND VPWR VPWR _0132_ sky130_fd_sc_hd__o22a_1
X_4325_ clknet_leaf_20_clk net182 VGND VGND VPWR VPWR instance_0.rdata\[47\] sky130_fd_sc_hd__dfxtp_1
X_2586_ net229 _1026_ _1065_ _1068_ VGND VGND VPWR VPWR _0119_ sky130_fd_sc_hd__o22a_1
X_4256_ clknet_leaf_11_clk _0092_ VGND VGND VPWR VPWR instance_0.mem\[0\]\[50\] sky130_fd_sc_hd__dfxtp_1
X_3207_ _1523_ VGND VGND VPWR VPWR _0285_ sky130_fd_sc_hd__clkbuf_1
X_4187_ clknet_leaf_10_clk _0023_ VGND VGND VPWR VPWR instance_1.mem\[1\]\[53\] sky130_fd_sc_hd__dfxtp_1
X_3138_ _1484_ VGND VGND VPWR VPWR _0255_ sky130_fd_sc_hd__clkbuf_1
XFILLER_0_77_431 VGND VGND VPWR VPWR sky130_fd_sc_hd__fill_1
XFILLER_0_49_133 VGND VGND VPWR VPWR sky130_fd_sc_hd__fill_1
XTAP_TAPCELL_ROW_53_702 VGND VPWR sky130_fd_sc_hd__tapvpwrvgnd_1
X_3069_ instance_1.mem\[1\]\[49\] _1418_ _1432_ instance_1.mem\[3\]\[49\] _1433_ VGND
+ VGND VPWR VPWR _1436_ sky130_fd_sc_hd__a221o_1
XTAP_TAPCELL_ROW_25_437 VGND VPWR sky130_fd_sc_hd__tapvpwrvgnd_1
XFILLER_0_49_199 VGND VGND VPWR VPWR sky130_fd_sc_hd__decap_6
XFILLER_0_52_309 VGND VGND VPWR VPWR sky130_fd_sc_hd__decap_6
Xhold170 _0215_ VGND VGND VPWR VPWR net318 sky130_fd_sc_hd__dlygate4sd3_1
Xhold181 instance_0.rdata\[17\] VGND VGND VPWR VPWR net329 sky130_fd_sc_hd__dlygate4sd3_1
Xhold192 _0206_ VGND VGND VPWR VPWR net340 sky130_fd_sc_hd__dlygate4sd3_1
XFILLER_0_18_29 VPWR VGND VPWR VGND sky130_ef_sc_hd__decap_12
XFILLER_0_28_317 VPWR VGND VPWR VGND sky130_ef_sc_hd__decap_12
XFILLER_0_55_125 VPWR VGND VPWR VGND sky130_ef_sc_hd__decap_12
XFILLER_0_70_117 VGND VGND VPWR VPWR sky130_fd_sc_hd__fill_1
XFILLER_0_3_417 VPWR VGND VPWR VGND sky130_ef_sc_hd__decap_12
XFILLER_0_59_14 VGND VGND VPWR VPWR sky130_fd_sc_hd__decap_4
X_2440_ net25 VGND VGND VPWR VPWR _0971_ sky130_fd_sc_hd__dlymetal6s2s_1
XFILLER_0_11_239 VGND VGND VPWR VPWR sky130_fd_sc_hd__fill_1
X_2371_ net73 VGND VGND VPWR VPWR _0924_ sky130_fd_sc_hd__dlymetal6s2s_1
X_4110_ net868 net59 _2011_ VGND VGND VPWR VPWR _2017_ sky130_fd_sc_hd__mux2_1
X_4041_ _0845_ net906 _1976_ VGND VGND VPWR VPWR _1980_ sky130_fd_sc_hd__mux2_1
XFILLER_0_75_57 VPWR VGND VPWR VGND sky130_ef_sc_hd__decap_12
XFILLER_0_38_9 VGND VGND VPWR VPWR sky130_fd_sc_hd__decap_8
XTAP_TAPCELL_ROW_67_838 VGND VPWR sky130_fd_sc_hd__tapvpwrvgnd_1
XFILLER_0_78_206 VGND VGND VPWR VPWR sky130_fd_sc_hd__decap_6
XFILLER_0_59_453 VGND VGND VPWR VPWR sky130_fd_sc_hd__fill_1
XFILLER_0_86_272 VGND VGND VPWR VPWR sky130_fd_sc_hd__fill_2
XTAP_TAPCELL_ROW_22_407 VGND VPWR sky130_fd_sc_hd__tapvpwrvgnd_1
XFILLER_0_59_497 VGND VGND VPWR VPWR sky130_fd_sc_hd__decap_6
XFILLER_0_86_294 VPWR VGND VPWR VGND sky130_ef_sc_hd__decap_12
XFILLER_0_74_467 VGND VGND VPWR VPWR sky130_fd_sc_hd__fill_1
XFILLER_0_74_445 VGND VGND VPWR VPWR sky130_fd_sc_hd__fill_1
X_4874_ clknet_leaf_36_clk _0710_ VGND VGND VPWR VPWR instance_1.mem\[1\]\[20\] sky130_fd_sc_hd__dfxtp_1
XFILLER_0_34_309 VGND VGND VPWR VPWR sky130_fd_sc_hd__decap_8
X_3825_ net638 net14 _1860_ VGND VGND VPWR VPWR _1862_ sky130_fd_sc_hd__mux2_1
X_3756_ net382 net60 _1823_ VGND VGND VPWR VPWR _1824_ sky130_fd_sc_hd__mux2_1
XFILLER_0_6_266 VGND VGND VPWR VPWR sky130_fd_sc_hd__fill_1
XTAP_TAPCELL_ROW_30_484 VGND VPWR sky130_fd_sc_hd__tapvpwrvgnd_1
XFILLER_0_42_342 VPWR VGND VPWR VGND sky130_ef_sc_hd__decap_12
X_2707_ net373 _1149_ _1160_ _1163_ VGND VGND VPWR VPWR _0145_ sky130_fd_sc_hd__o22a_1
X_3687_ net453 _0971_ _1780_ VGND VGND VPWR VPWR _1786_ sky130_fd_sc_hd__mux2_1
XFILLER_0_71_3 VPWR VGND VPWR VGND sky130_ef_sc_hd__decap_12
X_2638_ net600 _1110_ _1111_ VGND VGND VPWR VPWR _1112_ sky130_fd_sc_hd__mux2_1
X_2569_ _0810_ VGND VGND VPWR VPWR _1055_ sky130_fd_sc_hd__buf_2
X_4308_ clknet_leaf_28_clk _0144_ VGND VGND VPWR VPWR instance_0.rdata\[30\] sky130_fd_sc_hd__dfxtp_1
X_4239_ clknet_leaf_27_clk _0075_ VGND VGND VPWR VPWR instance_0.mem\[0\]\[33\] sky130_fd_sc_hd__dfxtp_1
XTAP_TAPCELL_ROW_38_562 VGND VPWR sky130_fd_sc_hd__tapvpwrvgnd_1
XFILLER_0_65_412 VGND VGND VPWR VPWR sky130_fd_sc_hd__decap_3
XPHY_EDGE_ROW_67_Left_159 VGND VGND VPWR VPWR sky130_fd_sc_hd__decap_3
XFILLER_0_37_169 VGND VGND VPWR VPWR sky130_fd_sc_hd__fill_1
XPHY_EDGE_ROW_76_Left_168 VGND VGND VPWR VPWR sky130_fd_sc_hd__decap_3
XTAP_TAPCELL_ROW_88_1029 VGND VPWR sky130_fd_sc_hd__tapvpwrvgnd_1
XTAP_TAPCELL_ROW_64_808 VGND VPWR sky130_fd_sc_hd__tapvpwrvgnd_1
XPHY_EDGE_ROW_85_Left_177 VGND VGND VPWR VPWR sky130_fd_sc_hd__decap_3
XFILLER_0_0_29 VPWR VGND VPWR VGND sky130_ef_sc_hd__decap_12
XTAP_TAPCELL_ROW_72_885 VGND VPWR sky130_fd_sc_hd__tapvpwrvgnd_1
XFILLER_0_9_27 VPWR VGND VPWR VGND sky130_ef_sc_hd__decap_12
X_3610_ net441 _0890_ _1743_ VGND VGND VPWR VPWR _1744_ sky130_fd_sc_hd__mux2_1
X_4590_ clknet_leaf_24_clk _0426_ VGND VGND VPWR VPWR instance_1.mem\[3\]\[24\] sky130_fd_sc_hd__dfxtp_1
X_3541_ net464 _0823_ _1700_ VGND VGND VPWR VPWR _1706_ sky130_fd_sc_hd__mux2_1
XFILLER_0_24_353 VGND VGND VPWR VPWR sky130_fd_sc_hd__decap_4
XFILLER_0_10_41 VPWR VGND VPWR VGND sky130_ef_sc_hd__decap_12
X_3472_ net727 _0915_ _1665_ VGND VGND VPWR VPWR _1669_ sky130_fd_sc_hd__mux2_1
X_2423_ _0959_ VGND VGND VPWR VPWR _0065_ sky130_fd_sc_hd__clkbuf_1
X_2354_ _0912_ VGND VGND VPWR VPWR _0043_ sky130_fd_sc_hd__clkbuf_1
XFILLER_0_43_7 VGND VGND VPWR VPWR sky130_fd_sc_hd__decap_8
X_2285_ _0863_ VGND VGND VPWR VPWR _0023_ sky130_fd_sc_hd__clkbuf_1
X_4024_ _0828_ net803 _1969_ VGND VGND VPWR VPWR _1971_ sky130_fd_sc_hd__mux2_1
XFILLER_0_79_537 VGND VGND VPWR VPWR sky130_fd_sc_hd__fill_1
XTAP_TAPCELL_ROW_35_532 VGND VPWR sky130_fd_sc_hd__tapvpwrvgnd_1
X_4857_ clknet_leaf_50_clk _0693_ VGND VGND VPWR VPWR instance_1.mem\[1\]\[3\] sky130_fd_sc_hd__dfxtp_1
X_3808_ _1852_ VGND VGND VPWR VPWR _0557_ sky130_fd_sc_hd__clkbuf_1
X_4788_ clknet_leaf_48_clk _0624_ VGND VGND VPWR VPWR instance_1.mem\[0\]\[6\] sky130_fd_sc_hd__dfxtp_1
XFILLER_0_15_397 VGND VGND VPWR VPWR sky130_fd_sc_hd__fill_1
X_3739_ _1814_ VGND VGND VPWR VPWR _0526_ sky130_fd_sc_hd__clkbuf_1
XTAP_TAPCELL_ROW_7_268 VGND VPWR sky130_fd_sc_hd__tapvpwrvgnd_1
XFILLER_0_85_529 VPWR VGND VPWR VGND sky130_ef_sc_hd__decap_12
XFILLER_0_38_456 VGND VGND VPWR VPWR sky130_fd_sc_hd__fill_2
XFILLER_0_80_201 VGND VGND VPWR VPWR sky130_fd_sc_hd__fill_1
XFILLER_0_53_426 VGND VGND VPWR VPWR sky130_fd_sc_hd__fill_2
XFILLER_0_21_345 VGND VGND VPWR VPWR sky130_fd_sc_hd__decap_4
XTAP_TAPCELL_ROW_77_933 VGND VPWR sky130_fd_sc_hd__tapvpwrvgnd_1
X_2070_ instance_0.rdata\[10\] instance_1.rdata\[10\] _0729_ VGND VGND VPWR VPWR _0734_
+ sky130_fd_sc_hd__mux2_1
XFILLER_0_88_389 VPWR VGND VPWR VGND sky130_ef_sc_hd__decap_12
XFILLER_0_72_69 VGND VGND VPWR VPWR sky130_fd_sc_hd__decap_6
XFILLER_0_29_412 VGND VGND VPWR VPWR sky130_fd_sc_hd__decap_3
X_2972_ _1297_ VGND VGND VPWR VPWR _1364_ sky130_fd_sc_hd__buf_2
XFILLER_0_8_317 VGND VGND VPWR VPWR sky130_fd_sc_hd__fill_1
XFILLER_0_29_423 VGND VGND VPWR VPWR sky130_fd_sc_hd__fill_1
XTAP_TAPCELL_ROW_32_502 VGND VPWR sky130_fd_sc_hd__tapvpwrvgnd_1
X_4711_ clknet_leaf_49_clk _0547_ VGND VGND VPWR VPWR instance_0.mem\[3\]\[1\] sky130_fd_sc_hd__dfxtp_1
XFILLER_0_29_489 VGND VGND VPWR VPWR sky130_fd_sc_hd__fill_2
XFILLER_0_4_501 VPWR VGND VPWR VGND sky130_ef_sc_hd__decap_12
X_4642_ clknet_leaf_50_clk _0478_ VGND VGND VPWR VPWR instance_1.mem\[2\]\[4\] sky130_fd_sc_hd__dfxtp_1
X_4573_ clknet_leaf_51_clk _0409_ VGND VGND VPWR VPWR instance_1.mem\[3\]\[7\] sky130_fd_sc_hd__dfxtp_1
XFILLER_0_31_109 VGND VGND VPWR VPWR sky130_fd_sc_hd__decap_3
Xhold703 instance_0.mem\[3\]\[17\] VGND VGND VPWR VPWR net851 sky130_fd_sc_hd__dlygate4sd3_1
Xhold725 instance_0.mem\[1\]\[33\] VGND VGND VPWR VPWR net873 sky130_fd_sc_hd__dlygate4sd3_1
X_3524_ net519 _0967_ _1693_ VGND VGND VPWR VPWR _1697_ sky130_fd_sc_hd__mux2_1
Xhold736 instance_0.mem\[0\]\[71\] VGND VGND VPWR VPWR net884 sky130_fd_sc_hd__dlygate4sd3_1
XFILLER_0_24_194 VGND VGND VPWR VPWR sky130_fd_sc_hd__fill_2
Xhold714 instance_0.mem\[1\]\[26\] VGND VGND VPWR VPWR net862 sky130_fd_sc_hd__dlygate4sd3_1
Xhold758 instance_1.mem\[0\]\[45\] VGND VGND VPWR VPWR net906 sky130_fd_sc_hd__dlygate4sd3_1
X_3455_ _0896_ net957 _1656_ VGND VGND VPWR VPWR _1659_ sky130_fd_sc_hd__mux2_1
Xhold769 instance_0.mem\[2\]\[2\] VGND VGND VPWR VPWR net917 sky130_fd_sc_hd__dlygate4sd3_1
Xhold747 instance_1.mem\[0\]\[61\] VGND VGND VPWR VPWR net895 sky130_fd_sc_hd__dlygate4sd3_1
X_2406_ _0908_ VGND VGND VPWR VPWR _0948_ sky130_fd_sc_hd__buf_2
X_3386_ _0825_ net978 _1621_ VGND VGND VPWR VPWR _1622_ sky130_fd_sc_hd__mux2_1
XTAP_TAPCELL_ROW_4_238 VGND VPWR sky130_fd_sc_hd__tapvpwrvgnd_1
X_2337_ _0899_ VGND VGND VPWR VPWR _0039_ sky130_fd_sc_hd__clkbuf_1
X_2268_ _0812_ VGND VGND VPWR VPWR _0852_ sky130_fd_sc_hd__buf_2
X_4007_ _1925_ VGND VGND VPWR VPWR _1961_ sky130_fd_sc_hd__buf_2
X_2199_ instance_0.rdata\[69\] instance_1.rdata\[69\] _0800_ VGND VGND VPWR VPWR _0804_
+ sky130_fd_sc_hd__mux2_1
XFILLER_0_47_297 VGND VGND VPWR VPWR sky130_fd_sc_hd__fill_1
XFILLER_0_22_109 VPWR VGND VPWR VGND sky130_ef_sc_hd__decap_12
XFILLER_0_15_183 VGND VGND VPWR VPWR sky130_fd_sc_hd__decap_3
Xhold41 instance_0.rdata\[7\] VGND VGND VPWR VPWR net189 sky130_fd_sc_hd__dlygate4sd3_1
Xhold30 _0140_ VGND VGND VPWR VPWR net178 sky130_fd_sc_hd__dlygate4sd3_1
Xhold52 _0156_ VGND VGND VPWR VPWR net200 sky130_fd_sc_hd__dlygate4sd3_1
Xhold63 instance_0.rdata\[28\] VGND VGND VPWR VPWR net211 sky130_fd_sc_hd__dlygate4sd3_1
Xhold74 _0180_ VGND VGND VPWR VPWR net222 sky130_fd_sc_hd__dlygate4sd3_1
XFILLER_0_26_18 VGND VGND VPWR VPWR sky130_fd_sc_hd__decap_8
XFILLER_0_26_29 VPWR VGND VPWR VGND sky130_ef_sc_hd__decap_12
XTAP_TAPCELL_ROW_74_903 VGND VPWR sky130_fd_sc_hd__tapvpwrvgnd_1
Xhold96 _0146_ VGND VGND VPWR VPWR net244 sky130_fd_sc_hd__dlygate4sd3_1
Xhold85 instance_1.rdata\[24\] VGND VGND VPWR VPWR net233 sky130_fd_sc_hd__dlygate4sd3_1
XTAP_TAPCELL_ROW_46_638 VGND VPWR sky130_fd_sc_hd__tapvpwrvgnd_1
XTAP_TAPCELL_ROW_82_980 VGND VPWR sky130_fd_sc_hd__tapvpwrvgnd_1
XFILLER_0_26_459 VGND VGND VPWR VPWR sky130_fd_sc_hd__fill_2
XANTENNA_5 _1276_ VGND VGND VPWR VPWR sky130_fd_sc_hd__diode_2
X_3240_ _0838_ net881 _1541_ VGND VGND VPWR VPWR _1542_ sky130_fd_sc_hd__mux2_1
X_3171_ _0932_ net946 _1498_ VGND VGND VPWR VPWR _1504_ sky130_fd_sc_hd__mux2_1
X_2122_ instance_0.rdata\[34\] instance_1.rdata\[34\] _0757_ VGND VGND VPWR VPWR _0762_
+ sky130_fd_sc_hd__mux2_1
XFILLER_0_83_57 VGND VGND VPWR VPWR sky130_fd_sc_hd__fill_1
XTAP_TAPCELL_ROW_1_208 VGND VPWR sky130_fd_sc_hd__tapvpwrvgnd_1
X_2053_ instance_0.rdata\[2\] instance_1.rdata\[2\] _0722_ VGND VGND VPWR VPWR _0725_
+ sky130_fd_sc_hd__mux2_1
XFILLER_0_88_153 VPWR VGND VPWR VGND sky130_ef_sc_hd__decap_12
XTAP_TAPCELL_ROW_17_362 VGND VPWR sky130_fd_sc_hd__tapvpwrvgnd_1
XFILLER_0_91_307 VGND VGND VPWR VPWR sky130_fd_sc_hd__fill_1
XFILLER_0_29_242 VGND VGND VPWR VPWR sky130_fd_sc_hd__fill_2
XFILLER_0_17_426 VGND VGND VPWR VPWR sky130_fd_sc_hd__fill_1
X_2955_ net331 _1347_ _1348_ _1351_ VGND VGND VPWR VPWR _0205_ sky130_fd_sc_hd__o22a_1
X_2886_ net265 _1294_ _1295_ _1299_ VGND VGND VPWR VPWR _0188_ sky130_fd_sc_hd__o22a_1
X_4625_ clknet_leaf_1_clk _0461_ VGND VGND VPWR VPWR instance_1.mem\[3\]\[59\] sky130_fd_sc_hd__dfxtp_1
X_4556_ clknet_leaf_0_clk _0392_ VGND VGND VPWR VPWR instance_0.mem\[2\]\[62\] sky130_fd_sc_hd__dfxtp_1
Xhold500 instance_0.mem\[0\]\[60\] VGND VGND VPWR VPWR net648 sky130_fd_sc_hd__dlygate4sd3_1
Xhold511 instance_0.mem\[0\]\[46\] VGND VGND VPWR VPWR net659 sky130_fd_sc_hd__dlygate4sd3_1
XFILLER_0_12_131 VGND VGND VPWR VPWR sky130_fd_sc_hd__fill_1
Xhold544 instance_1.mem\[2\]\[66\] VGND VGND VPWR VPWR net692 sky130_fd_sc_hd__dlygate4sd3_1
XFILLER_0_40_451 VGND VGND VPWR VPWR sky130_fd_sc_hd__fill_1
Xhold522 instance_1.mem\[1\]\[21\] VGND VGND VPWR VPWR net670 sky130_fd_sc_hd__dlygate4sd3_1
X_3507_ net760 _0950_ _1686_ VGND VGND VPWR VPWR _1688_ sky130_fd_sc_hd__mux2_1
Xhold533 instance_1.mem\[2\]\[48\] VGND VGND VPWR VPWR net681 sky130_fd_sc_hd__dlygate4sd3_1
Xhold588 instance_1.mem\[1\]\[27\] VGND VGND VPWR VPWR net736 sky130_fd_sc_hd__dlygate4sd3_1
X_4487_ clknet_leaf_58_clk _0323_ VGND VGND VPWR VPWR instance_0.mem\[1\]\[65\] sky130_fd_sc_hd__dfxtp_1
XFILLER_0_12_197 VGND VGND VPWR VPWR sky130_fd_sc_hd__decap_4
Xhold566 instance_1.mem\[3\]\[7\] VGND VGND VPWR VPWR net714 sky130_fd_sc_hd__dlygate4sd3_1
Xhold577 instance_1.mem\[0\]\[2\] VGND VGND VPWR VPWR net725 sky130_fd_sc_hd__dlygate4sd3_1
Xhold555 instance_0.mem\[3\]\[46\] VGND VGND VPWR VPWR net703 sky130_fd_sc_hd__dlygate4sd3_1
X_3438_ _0877_ net658 _1649_ VGND VGND VPWR VPWR _1650_ sky130_fd_sc_hd__mux2_1
Xhold599 instance_0.mem\[0\]\[16\] VGND VGND VPWR VPWR net747 sky130_fd_sc_hd__dlygate4sd3_1
X_3369_ _0971_ net801 _1606_ VGND VGND VPWR VPWR _1612_ sky130_fd_sc_hd__mux2_1
XTAP_TAPCELL_ROW_43_608 VGND VPWR sky130_fd_sc_hd__tapvpwrvgnd_1
XFILLER_0_67_326 VGND VGND VPWR VPWR sky130_fd_sc_hd__fill_1
XFILLER_0_82_318 VGND VGND VPWR VPWR sky130_fd_sc_hd__fill_1
XFILLER_0_35_223 VGND VGND VPWR VPWR sky130_fd_sc_hd__fill_1
XFILLER_0_90_340 VGND VGND VPWR VPWR sky130_fd_sc_hd__decap_6
XTAP_TAPCELL_ROW_51_685 VGND VPWR sky130_fd_sc_hd__tapvpwrvgnd_1
XFILLER_0_50_226 VPWR VGND VPWR VGND sky130_ef_sc_hd__decap_12
XTAP_TAPCELL_ROW_91_1069 VGND VPWR sky130_fd_sc_hd__tapvpwrvgnd_1
XTAP_TAPCELL_ROW_91_1058 VGND VPWR sky130_fd_sc_hd__tapvpwrvgnd_1
Xoutput97 net97 VGND VGND VPWR VPWR rdata[28] sky130_fd_sc_hd__clkbuf_4
Xoutput86 net86 VGND VGND VPWR VPWR rdata[18] sky130_fd_sc_hd__clkbuf_4
XFILLER_0_85_178 VGND VGND VPWR VPWR sky130_fd_sc_hd__fill_2
XTAP_TAPCELL_ROW_14_332 VGND VPWR sky130_fd_sc_hd__tapvpwrvgnd_1
X_2740_ _1188_ VGND VGND VPWR VPWR _0153_ sky130_fd_sc_hd__clkbuf_1
XFILLER_0_81_351 VGND VGND VPWR VPWR sky130_fd_sc_hd__fill_1
X_2671_ net253 _1131_ _1134_ _1136_ VGND VGND VPWR VPWR _0136_ sky130_fd_sc_hd__o22a_1
X_4410_ clknet_leaf_0_clk _0246_ VGND VGND VPWR VPWR instance_1.rdata\[60\] sky130_fd_sc_hd__dfxtp_1
X_4341_ clknet_leaf_57_clk net152 VGND VGND VPWR VPWR instance_0.rdata\[63\] sky130_fd_sc_hd__dfxtp_1
XFILLER_0_1_389 VGND VGND VPWR VPWR sky130_fd_sc_hd__decap_3
X_4272_ clknet_leaf_54_clk _0108_ VGND VGND VPWR VPWR instance_0.mem\[0\]\[66\] sky130_fd_sc_hd__dfxtp_1
X_3223_ _0823_ net863 _1526_ VGND VGND VPWR VPWR _1532_ sky130_fd_sc_hd__mux2_1
X_3154_ _0915_ net824 _1491_ VGND VGND VPWR VPWR _1495_ sky130_fd_sc_hd__mux2_1
X_3085_ _1447_ VGND VGND VPWR VPWR _0239_ sky130_fd_sc_hd__clkbuf_1
X_2105_ instance_0.rdata\[26\] instance_1.rdata\[26\] _0750_ VGND VGND VPWR VPWR _0753_
+ sky130_fd_sc_hd__mux2_1
XFILLER_0_89_473 VPWR VGND VPWR VGND sky130_ef_sc_hd__decap_12
XFILLER_0_76_101 VGND VGND VPWR VPWR sky130_fd_sc_hd__fill_1
XFILLER_0_91_104 VGND VGND VPWR VPWR sky130_fd_sc_hd__decap_8
XFILLER_0_17_212 VGND VGND VPWR VPWR sky130_fd_sc_hd__decap_3
X_3987_ _1950_ VGND VGND VPWR VPWR _0638_ sky130_fd_sc_hd__clkbuf_1
XFILLER_0_64_329 VGND VGND VPWR VPWR sky130_fd_sc_hd__fill_2
X_2938_ instance_1.mem\[1\]\[16\] _1272_ _1311_ instance_1.mem\[3\]\[16\] VGND VGND
+ VPWR VPWR _1338_ sky130_fd_sc_hd__a22o_1
X_2869_ net3 VGND VGND VPWR VPWR _1285_ sky130_fd_sc_hd__buf_1
X_4608_ clknet_leaf_15_clk _0444_ VGND VGND VPWR VPWR instance_1.mem\[3\]\[42\] sky130_fd_sc_hd__dfxtp_1
X_4539_ clknet_leaf_14_clk _0375_ VGND VGND VPWR VPWR instance_0.mem\[2\]\[45\] sky130_fd_sc_hd__dfxtp_1
Xhold341 instance_1.mem\[2\]\[42\] VGND VGND VPWR VPWR net489 sky130_fd_sc_hd__dlygate4sd3_1
Xhold330 instance_1.rdata\[71\] VGND VGND VPWR VPWR net478 sky130_fd_sc_hd__dlygate4sd3_1
Xhold352 instance_1.mem\[1\]\[24\] VGND VGND VPWR VPWR net500 sky130_fd_sc_hd__dlygate4sd3_1
Xhold396 instance_0.mem\[0\]\[61\] VGND VGND VPWR VPWR net544 sky130_fd_sc_hd__dlygate4sd3_1
Xhold385 instance_0.rdata\[61\] VGND VGND VPWR VPWR net533 sky130_fd_sc_hd__dlygate4sd3_1
Xhold374 instance_1.mem\[1\]\[66\] VGND VGND VPWR VPWR net522 sky130_fd_sc_hd__dlygate4sd3_1
Xhold363 instance_0.mem\[2\]\[56\] VGND VGND VPWR VPWR net511 sky130_fd_sc_hd__dlygate4sd3_1
XTAP_TAPCELL_ROW_56_733 VGND VPWR sky130_fd_sc_hd__tapvpwrvgnd_1
XTAP_TAPCELL_ROW_28_468 VGND VPWR sky130_fd_sc_hd__tapvpwrvgnd_1
Xclkbuf_3_6__f_clk clknet_0_clk VGND VGND VPWR VPWR clknet_3_6__leaf_clk sky130_fd_sc_hd__clkbuf_16
XFILLER_0_67_178 VGND VGND VPWR VPWR sky130_fd_sc_hd__decap_4
XFILLER_0_82_137 VGND VGND VPWR VPWR sky130_fd_sc_hd__decap_3
XTAP_TAPCELL_ROW_11_302 VGND VPWR sky130_fd_sc_hd__tapvpwrvgnd_1
XFILLER_0_2_109 VPWR VGND VPWR VGND sky130_ef_sc_hd__decap_12
XFILLER_0_23_215 VGND VGND VPWR VPWR sky130_fd_sc_hd__decap_3
XFILLER_0_63_384 VGND VGND VPWR VPWR sky130_fd_sc_hd__decap_3
XFILLER_0_48_16 VPWR VGND VPWR VGND sky130_ef_sc_hd__decap_12
XFILLER_0_86_421 VPWR VGND VPWR VGND sky130_ef_sc_hd__decap_12
X_3910_ net532 net57 _1903_ VGND VGND VPWR VPWR _1908_ sky130_fd_sc_hd__mux2_1
XFILLER_0_46_318 VGND VGND VPWR VPWR sky130_fd_sc_hd__fill_1
X_3841_ _1870_ VGND VGND VPWR VPWR _0572_ sky130_fd_sc_hd__clkbuf_1
X_3772_ _1832_ VGND VGND VPWR VPWR _0541_ sky130_fd_sc_hd__clkbuf_1
X_2723_ instance_0.mem\[1\]\[35\] _1173_ _1135_ instance_0.mem\[2\]\[35\] _1151_ VGND
+ VGND VPWR VPWR _1176_ sky130_fd_sc_hd__a221o_1
XFILLER_0_54_373 VGND VGND VPWR VPWR sky130_fd_sc_hd__decap_3
XFILLER_0_14_248 VGND VGND VPWR VPWR sky130_fd_sc_hd__decap_4
X_2654_ instance_0.mem\[1\]\[18\] _1106_ _1123_ instance_0.mem\[0\]\[18\] _1091_ VGND
+ VGND VPWR VPWR _1124_ sky130_fd_sc_hd__a221o_1
X_2585_ instance_0.mem\[0\]\[5\] _1067_ _1040_ instance_0.mem\[2\]\[5\] _1057_ VGND
+ VGND VPWR VPWR _1068_ sky130_fd_sc_hd__a221o_1
XFILLER_0_10_421 VGND VGND VPWR VPWR sky130_fd_sc_hd__decap_6
X_4324_ clknet_leaf_20_clk net150 VGND VGND VPWR VPWR instance_0.rdata\[46\] sky130_fd_sc_hd__dfxtp_1
X_4255_ clknet_leaf_12_clk _0091_ VGND VGND VPWR VPWR instance_0.mem\[0\]\[49\] sky130_fd_sc_hd__dfxtp_1
X_3206_ _0967_ net825 _1519_ VGND VGND VPWR VPWR _1523_ sky130_fd_sc_hd__mux2_1
XFILLER_0_38_93 VPWR VGND VPWR VGND sky130_ef_sc_hd__decap_12
X_4186_ clknet_leaf_12_clk _0022_ VGND VGND VPWR VPWR instance_1.mem\[1\]\[52\] sky130_fd_sc_hd__dfxtp_1
X_3137_ net583 _1483_ _1287_ VGND VGND VPWR VPWR _1484_ sky130_fd_sc_hd__mux2_1
XFILLER_0_89_281 VGND VGND VPWR VPWR sky130_fd_sc_hd__decap_8
XFILLER_0_49_101 VGND VGND VPWR VPWR sky130_fd_sc_hd__decap_8
XTAP_TAPCELL_ROW_53_703 VGND VPWR sky130_fd_sc_hd__tapvpwrvgnd_1
X_3068_ instance_1.mem\[0\]\[49\] _1371_ _1408_ instance_1.mem\[2\]\[49\] VGND VGND
+ VPWR VPWR _1435_ sky130_fd_sc_hd__a22o_1
XTAP_TAPCELL_ROW_25_438 VGND VPWR sky130_fd_sc_hd__tapvpwrvgnd_1
XFILLER_0_9_286 VGND VGND VPWR VPWR sky130_fd_sc_hd__fill_2
XFILLER_0_9_264 VGND VGND VPWR VPWR sky130_fd_sc_hd__decap_4
XTAP_TAPCELL_ROW_61_780 VGND VPWR sky130_fd_sc_hd__tapvpwrvgnd_1
XFILLER_0_33_524 VGND VGND VPWR VPWR sky130_fd_sc_hd__fill_2
Xhold160 _0229_ VGND VGND VPWR VPWR net308 sky130_fd_sc_hd__dlygate4sd3_1
Xhold171 instance_0.rdata\[67\] VGND VGND VPWR VPWR net319 sky130_fd_sc_hd__dlygate4sd3_1
XFILLER_0_13_281 VGND VGND VPWR VPWR sky130_fd_sc_hd__fill_1
Xhold193 instance_0.rdata\[29\] VGND VGND VPWR VPWR net341 sky130_fd_sc_hd__dlygate4sd3_1
Xhold182 _0131_ VGND VGND VPWR VPWR net330 sky130_fd_sc_hd__dlygate4sd3_1
XFILLER_0_28_329 VPWR VGND VPWR VGND sky130_ef_sc_hd__decap_12
XFILLER_0_55_137 VGND VGND VPWR VPWR sky130_fd_sc_hd__decap_3
XFILLER_0_3_429 VGND VGND VPWR VPWR sky130_fd_sc_hd__decap_4
X_2370_ _0923_ VGND VGND VPWR VPWR _0048_ sky130_fd_sc_hd__clkbuf_1
XFILLER_0_75_69 VGND VGND VPWR VPWR sky130_fd_sc_hd__decap_4
X_4040_ _1979_ VGND VGND VPWR VPWR _0662_ sky130_fd_sc_hd__clkbuf_1
XFILLER_0_91_57 VPWR VGND VPWR VGND sky130_ef_sc_hd__decap_12
XFILLER_0_86_240 VGND VGND VPWR VPWR sky130_fd_sc_hd__fill_1
XFILLER_0_74_435 VGND VGND VPWR VPWR sky130_fd_sc_hd__fill_1
XTAP_TAPCELL_ROW_22_408 VGND VPWR sky130_fd_sc_hd__tapvpwrvgnd_1
X_4873_ clknet_leaf_33_clk _0709_ VGND VGND VPWR VPWR instance_1.mem\[1\]\[19\] sky130_fd_sc_hd__dfxtp_1
XFILLER_0_6_212 VGND VGND VPWR VPWR sky130_fd_sc_hd__fill_2
XFILLER_0_27_351 VGND VGND VPWR VPWR sky130_fd_sc_hd__decap_3
X_3824_ _1861_ VGND VGND VPWR VPWR _0564_ sky130_fd_sc_hd__clkbuf_1
X_3755_ _1794_ VGND VGND VPWR VPWR _1823_ sky130_fd_sc_hd__buf_2
XFILLER_0_54_181 VPWR VGND VPWR VGND sky130_ef_sc_hd__decap_12
X_3686_ _1785_ VGND VGND VPWR VPWR _0502_ sky130_fd_sc_hd__clkbuf_1
XTAP_TAPCELL_ROW_30_485 VGND VPWR sky130_fd_sc_hd__tapvpwrvgnd_1
XFILLER_0_42_354 VGND VGND VPWR VPWR sky130_fd_sc_hd__fill_1
X_2706_ instance_0.mem\[1\]\[31\] _1140_ _1123_ instance_0.mem\[0\]\[31\] _1162_ VGND
+ VGND VPWR VPWR _1163_ sky130_fd_sc_hd__a221o_1
XPHY_EDGE_ROW_12_Right_12 VGND VGND VPWR VPWR sky130_fd_sc_hd__decap_3
XFILLER_0_30_527 VGND VGND VPWR VPWR sky130_fd_sc_hd__fill_1
X_2637_ _1023_ VGND VGND VPWR VPWR _1111_ sky130_fd_sc_hd__buf_4
XFILLER_0_10_262 VGND VGND VPWR VPWR sky130_fd_sc_hd__decap_6
XFILLER_0_10_251 VGND VGND VPWR VPWR sky130_fd_sc_hd__fill_1
X_2568_ instance_0.mem\[0\]\[2\] _1053_ _1048_ instance_0.mem\[3\]\[2\] VGND VGND