*SPEF "ieee 1481-1999"
*DESIGN "light"
*DATE "11:11:11 Fri 11 11, 1111"
*VENDOR "OpenRCX"
*PROGRAM "Parallel Extraction"
*VERSION "1.0"
*DESIGN_FLOW "NAME_SCOPE LOCAL" "PIN_CAP NONE"
*DIVIDER /
*DELIMITER :
*BUS_DELIMITER []
*T_UNIT 1 NS
*C_UNIT 1 PF
*R_UNIT 1 OHM
*L_UNIT 1 HENRY

*NAME_MAP
*1 Green
*2 Red
*5 Yellow
*6 clk
*7 rst
*8 _00_
*9 _01_
*10 _02_
*11 _03_
*12 _04_
*13 _05_
*14 _06_
*15 _07_
*16 _08_
*17 _09_
*18 _10_
*19 _11_
*20 _12_
*21 _13_
*22 _14_
*23 _15_
*24 _16_
*25 clknet_0_clk
*26 clknet_1_0__leaf_clk
*27 clknet_1_1__leaf_clk
*28 count3\[0\]
*29 count3\[1\]
*30 net1
*31 net2
*32 net3
*33 net4
*34 net5
*35 nextstate\[0\]
*36 nextstate\[1\]
*37 state\[0\]
*38 state\[1\]
*39 FILLER_0_0_109
*40 FILLER_0_0_113
*41 FILLER_0_0_125
*42 FILLER_0_0_137
*43 FILLER_0_0_141
*44 FILLER_0_0_15
*45 FILLER_0_0_153
*46 FILLER_0_0_165
*47 FILLER_0_0_169
*48 FILLER_0_0_181
*49 FILLER_0_0_193
*50 FILLER_0_0_207
*51 FILLER_0_0_219
*52 FILLER_0_0_223
*53 FILLER_0_0_225
*54 FILLER_0_0_237
*55 FILLER_0_0_249
*56 FILLER_0_0_253
*57 FILLER_0_0_265
*58 FILLER_0_0_27
*59 FILLER_0_0_277
*60 FILLER_0_0_281
*61 FILLER_0_0_29
*62 FILLER_0_0_293
*63 FILLER_0_0_3
*64 FILLER_0_0_305
*65 FILLER_0_0_309
*66 FILLER_0_0_321
*67 FILLER_0_0_333
*68 FILLER_0_0_337
*69 FILLER_0_0_349
*70 FILLER_0_0_361
*71 FILLER_0_0_365
*72 FILLER_0_0_377
*73 FILLER_0_0_389
*74 FILLER_0_0_393
*75 FILLER_0_0_405
*76 FILLER_0_0_41
*77 FILLER_0_0_53
*78 FILLER_0_0_57
*79 FILLER_0_0_69
*80 FILLER_0_0_81
*81 FILLER_0_0_85
*82 FILLER_0_0_97
*83 FILLER_0_10_109
*84 FILLER_0_10_121
*85 FILLER_0_10_133
*86 FILLER_0_10_139
*87 FILLER_0_10_141
*88 FILLER_0_10_15
*89 FILLER_0_10_153
*90 FILLER_0_10_165
*91 FILLER_0_10_177
*92 FILLER_0_10_189
*93 FILLER_0_10_195
*94 FILLER_0_10_197
*95 FILLER_0_10_209
*96 FILLER_0_10_221
*97 FILLER_0_10_233
*98 FILLER_0_10_245
*99 FILLER_0_10_251
*100 FILLER_0_10_253
*101 FILLER_0_10_265
*102 FILLER_0_10_27
*103 FILLER_0_10_277
*104 FILLER_0_10_289
*105 FILLER_0_10_29
*106 FILLER_0_10_3
*107 FILLER_0_10_301
*108 FILLER_0_10_307
*109 FILLER_0_10_309
*110 FILLER_0_10_321
*111 FILLER_0_10_333
*112 FILLER_0_10_345
*113 FILLER_0_10_357
*114 FILLER_0_10_363
*115 FILLER_0_10_365
*116 FILLER_0_10_377
*117 FILLER_0_10_389
*118 FILLER_0_10_401
*119 FILLER_0_10_41
*120 FILLER_0_10_53
*121 FILLER_0_10_65
*122 FILLER_0_10_77
*123 FILLER_0_10_83
*124 FILLER_0_10_85
*125 FILLER_0_10_97
*126 FILLER_0_11_105
*127 FILLER_0_11_111
*128 FILLER_0_11_113
*129 FILLER_0_11_125
*130 FILLER_0_11_137
*131 FILLER_0_11_149
*132 FILLER_0_11_15
*133 FILLER_0_11_161
*134 FILLER_0_11_167
*135 FILLER_0_11_169
*136 FILLER_0_11_181
*137 FILLER_0_11_193
*138 FILLER_0_11_205
*139 FILLER_0_11_217
*140 FILLER_0_11_223
*141 FILLER_0_11_225
*142 FILLER_0_11_237
*143 FILLER_0_11_249
*144 FILLER_0_11_261
*145 FILLER_0_11_27
*146 FILLER_0_11_273
*147 FILLER_0_11_279
*148 FILLER_0_11_281
*149 FILLER_0_11_293
*150 FILLER_0_11_3
*151 FILLER_0_11_305
*152 FILLER_0_11_317
*153 FILLER_0_11_329
*154 FILLER_0_11_335
*155 FILLER_0_11_337
*156 FILLER_0_11_349
*157 FILLER_0_11_361
*158 FILLER_0_11_373
*159 FILLER_0_11_385
*160 FILLER_0_11_39
*161 FILLER_0_11_391
*162 FILLER_0_11_393
*163 FILLER_0_11_405
*164 FILLER_0_11_51
*165 FILLER_0_11_55
*166 FILLER_0_11_57
*167 FILLER_0_11_69
*168 FILLER_0_11_81
*169 FILLER_0_11_93
*170 FILLER_0_12_109
*171 FILLER_0_12_121
*172 FILLER_0_12_133
*173 FILLER_0_12_139
*174 FILLER_0_12_141
*175 FILLER_0_12_15
*176 FILLER_0_12_153
*177 FILLER_0_12_165
*178 FILLER_0_12_177
*179 FILLER_0_12_189
*180 FILLER_0_12_195
*181 FILLER_0_12_197
*182 FILLER_0_12_209
*183 FILLER_0_12_221
*184 FILLER_0_12_233
*185 FILLER_0_12_245
*186 FILLER_0_12_251
*187 FILLER_0_12_253
*188 FILLER_0_12_265
*189 FILLER_0_12_27
*190 FILLER_0_12_277
*191 FILLER_0_12_289
*192 FILLER_0_12_29
*193 FILLER_0_12_3
*194 FILLER_0_12_301
*195 FILLER_0_12_307
*196 FILLER_0_12_309
*197 FILLER_0_12_321
*198 FILLER_0_12_333
*199 FILLER_0_12_345
*200 FILLER_0_12_357
*201 FILLER_0_12_363
*202 FILLER_0_12_365
*203 FILLER_0_12_377
*204 FILLER_0_12_389
*205 FILLER_0_12_401
*206 FILLER_0_12_41
*207 FILLER_0_12_53
*208 FILLER_0_12_65
*209 FILLER_0_12_77
*210 FILLER_0_12_83
*211 FILLER_0_12_85
*212 FILLER_0_12_97
*213 FILLER_0_13_105
*214 FILLER_0_13_111
*215 FILLER_0_13_113
*216 FILLER_0_13_125
*217 FILLER_0_13_137
*218 FILLER_0_13_149
*219 FILLER_0_13_15
*220 FILLER_0_13_161
*221 FILLER_0_13_167
*222 FILLER_0_13_169
*223 FILLER_0_13_181
*224 FILLER_0_13_193
*225 FILLER_0_13_205
*226 FILLER_0_13_217
*227 FILLER_0_13_223
*228 FILLER_0_13_225
*229 FILLER_0_13_237
*230 FILLER_0_13_249
*231 FILLER_0_13_261
*232 FILLER_0_13_27
*233 FILLER_0_13_273
*234 FILLER_0_13_279
*235 FILLER_0_13_281
*236 FILLER_0_13_293
*237 FILLER_0_13_3
*238 FILLER_0_13_305
*239 FILLER_0_13_317
*240 FILLER_0_13_329
*241 FILLER_0_13_335
*242 FILLER_0_13_337
*243 FILLER_0_13_349
*244 FILLER_0_13_361
*245 FILLER_0_13_373
*246 FILLER_0_13_385
*247 FILLER_0_13_39
*248 FILLER_0_13_391
*249 FILLER_0_13_393
*250 FILLER_0_13_405
*251 FILLER_0_13_51
*252 FILLER_0_13_55
*253 FILLER_0_13_57
*254 FILLER_0_13_69
*255 FILLER_0_13_81
*256 FILLER_0_13_93
*257 FILLER_0_14_109
*258 FILLER_0_14_121
*259 FILLER_0_14_133
*260 FILLER_0_14_139
*261 FILLER_0_14_141
*262 FILLER_0_14_15
*263 FILLER_0_14_153
*264 FILLER_0_14_165
*265 FILLER_0_14_177
*266 FILLER_0_14_189
*267 FILLER_0_14_195
*268 FILLER_0_14_197
*269 FILLER_0_14_209
*270 FILLER_0_14_221
*271 FILLER_0_14_233
*272 FILLER_0_14_245
*273 FILLER_0_14_251
*274 FILLER_0_14_253
*275 FILLER_0_14_265
*276 FILLER_0_14_27
*277 FILLER_0_14_277
*278 FILLER_0_14_289
*279 FILLER_0_14_29
*280 FILLER_0_14_3
*281 FILLER_0_14_301
*282 FILLER_0_14_307
*283 FILLER_0_14_309
*284 FILLER_0_14_321
*285 FILLER_0_14_333
*286 FILLER_0_14_345
*287 FILLER_0_14_357
*288 FILLER_0_14_363
*289 FILLER_0_14_365
*290 FILLER_0_14_377
*291 FILLER_0_14_389
*292 FILLER_0_14_401
*293 FILLER_0_14_41
*294 FILLER_0_14_53
*295 FILLER_0_14_65
*296 FILLER_0_14_77
*297 FILLER_0_14_83
*298 FILLER_0_14_85
*299 FILLER_0_14_97
*300 FILLER_0_15_105
*301 FILLER_0_15_111
*302 FILLER_0_15_113
*303 FILLER_0_15_125
*304 FILLER_0_15_137
*305 FILLER_0_15_149
*306 FILLER_0_15_15
*307 FILLER_0_15_161
*308 FILLER_0_15_167
*309 FILLER_0_15_169
*310 FILLER_0_15_181
*311 FILLER_0_15_193
*312 FILLER_0_15_205
*313 FILLER_0_15_217
*314 FILLER_0_15_223
*315 FILLER_0_15_225
*316 FILLER_0_15_237
*317 FILLER_0_15_249
*318 FILLER_0_15_261
*319 FILLER_0_15_27
*320 FILLER_0_15_273
*321 FILLER_0_15_279
*322 FILLER_0_15_281
*323 FILLER_0_15_293
*324 FILLER_0_15_3
*325 FILLER_0_15_305
*326 FILLER_0_15_317
*327 FILLER_0_15_329
*328 FILLER_0_15_335
*329 FILLER_0_15_337
*330 FILLER_0_15_349
*331 FILLER_0_15_361
*332 FILLER_0_15_373
*333 FILLER_0_15_385
*334 FILLER_0_15_39
*335 FILLER_0_15_391
*336 FILLER_0_15_393
*337 FILLER_0_15_405
*338 FILLER_0_15_51
*339 FILLER_0_15_55
*340 FILLER_0_15_57
*341 FILLER_0_15_69
*342 FILLER_0_15_81
*343 FILLER_0_15_93
*344 FILLER_0_16_109
*345 FILLER_0_16_121
*346 FILLER_0_16_133
*347 FILLER_0_16_139
*348 FILLER_0_16_141
*349 FILLER_0_16_15
*350 FILLER_0_16_153
*351 FILLER_0_16_165
*352 FILLER_0_16_177
*353 FILLER_0_16_189
*354 FILLER_0_16_195
*355 FILLER_0_16_197
*356 FILLER_0_16_209
*357 FILLER_0_16_221
*358 FILLER_0_16_233
*359 FILLER_0_16_245
*360 FILLER_0_16_251
*361 FILLER_0_16_253
*362 FILLER_0_16_265
*363 FILLER_0_16_27
*364 FILLER_0_16_277
*365 FILLER_0_16_289
*366 FILLER_0_16_29
*367 FILLER_0_16_3
*368 FILLER_0_16_301
*369 FILLER_0_16_307
*370 FILLER_0_16_309
*371 FILLER_0_16_321
*372 FILLER_0_16_333
*373 FILLER_0_16_345
*374 FILLER_0_16_357
*375 FILLER_0_16_363
*376 FILLER_0_16_365
*377 FILLER_0_16_377
*378 FILLER_0_16_389
*379 FILLER_0_16_401
*380 FILLER_0_16_41
*381 FILLER_0_16_53
*382 FILLER_0_16_65
*383 FILLER_0_16_77
*384 FILLER_0_16_83
*385 FILLER_0_16_85
*386 FILLER_0_16_97
*387 FILLER_0_17_105
*388 FILLER_0_17_111
*389 FILLER_0_17_113
*390 FILLER_0_17_125
*391 FILLER_0_17_137
*392 FILLER_0_17_149
*393 FILLER_0_17_15
*394 FILLER_0_17_161
*395 FILLER_0_17_167
*396 FILLER_0_17_169
*397 FILLER_0_17_181
*398 FILLER_0_17_193
*399 FILLER_0_17_205
*400 FILLER_0_17_217
*401 FILLER_0_17_223
*402 FILLER_0_17_225
*403 FILLER_0_17_237
*404 FILLER_0_17_249
*405 FILLER_0_17_261
*406 FILLER_0_17_27
*407 FILLER_0_17_273
*408 FILLER_0_17_279
*409 FILLER_0_17_281
*410 FILLER_0_17_293
*411 FILLER_0_17_3
*412 FILLER_0_17_305
*413 FILLER_0_17_317
*414 FILLER_0_17_329
*415 FILLER_0_17_335
*416 FILLER_0_17_337
*417 FILLER_0_17_349
*418 FILLER_0_17_361
*419 FILLER_0_17_373
*420 FILLER_0_17_385
*421 FILLER_0_17_39
*422 FILLER_0_17_391
*423 FILLER_0_17_393
*424 FILLER_0_17_405
*425 FILLER_0_17_51
*426 FILLER_0_17_55
*427 FILLER_0_17_57
*428 FILLER_0_17_69
*429 FILLER_0_17_81
*430 FILLER_0_17_93
*431 FILLER_0_18_109
*432 FILLER_0_18_121
*433 FILLER_0_18_133
*434 FILLER_0_18_139
*435 FILLER_0_18_141
*436 FILLER_0_18_15
*437 FILLER_0_18_153
*438 FILLER_0_18_165
*439 FILLER_0_18_177
*440 FILLER_0_18_189
*441 FILLER_0_18_195
*442 FILLER_0_18_197
*443 FILLER_0_18_209
*444 FILLER_0_18_221
*445 FILLER_0_18_233
*446 FILLER_0_18_245
*447 FILLER_0_18_251
*448 FILLER_0_18_253
*449 FILLER_0_18_265
*450 FILLER_0_18_27
*451 FILLER_0_18_277
*452 FILLER_0_18_289
*453 FILLER_0_18_29
*454 FILLER_0_18_3
*455 FILLER_0_18_301
*456 FILLER_0_18_307
*457 FILLER_0_18_309
*458 FILLER_0_18_321
*459 FILLER_0_18_333
*460 FILLER_0_18_345
*461 FILLER_0_18_357
*462 FILLER_0_18_363
*463 FILLER_0_18_365
*464 FILLER_0_18_377
*465 FILLER_0_18_389
*466 FILLER_0_18_401
*467 FILLER_0_18_41
*468 FILLER_0_18_53
*469 FILLER_0_18_65
*470 FILLER_0_18_77
*471 FILLER_0_18_83
*472 FILLER_0_18_85
*473 FILLER_0_18_97
*474 FILLER_0_19_105
*475 FILLER_0_19_111
*476 FILLER_0_19_113
*477 FILLER_0_19_125
*478 FILLER_0_19_137
*479 FILLER_0_19_149
*480 FILLER_0_19_15
*481 FILLER_0_19_161
*482 FILLER_0_19_167
*483 FILLER_0_19_169
*484 FILLER_0_19_181
*485 FILLER_0_19_193
*486 FILLER_0_19_205
*487 FILLER_0_19_217
*488 FILLER_0_19_223
*489 FILLER_0_19_225
*490 FILLER_0_19_237
*491 FILLER_0_19_249
*492 FILLER_0_19_261
*493 FILLER_0_19_27
*494 FILLER_0_19_273
*495 FILLER_0_19_279
*496 FILLER_0_19_281
*497 FILLER_0_19_293
*498 FILLER_0_19_3
*499 FILLER_0_19_305
*500 FILLER_0_19_317
*501 FILLER_0_19_329
*502 FILLER_0_19_335
*503 FILLER_0_19_337
*504 FILLER_0_19_349
*505 FILLER_0_19_361
*506 FILLER_0_19_373
*507 FILLER_0_19_385
*508 FILLER_0_19_39
*509 FILLER_0_19_391
*510 FILLER_0_19_393
*511 FILLER_0_19_405
*512 FILLER_0_19_51
*513 FILLER_0_19_55
*514 FILLER_0_19_57
*515 FILLER_0_19_69
*516 FILLER_0_19_81
*517 FILLER_0_19_93
*518 FILLER_0_1_105
*519 FILLER_0_1_111
*520 FILLER_0_1_113
*521 FILLER_0_1_125
*522 FILLER_0_1_137
*523 FILLER_0_1_149
*524 FILLER_0_1_15
*525 FILLER_0_1_161
*526 FILLER_0_1_167
*527 FILLER_0_1_169
*528 FILLER_0_1_181
*529 FILLER_0_1_193
*530 FILLER_0_1_205
*531 FILLER_0_1_217
*532 FILLER_0_1_223
*533 FILLER_0_1_225
*534 FILLER_0_1_237
*535 FILLER_0_1_249
*536 FILLER_0_1_261
*537 FILLER_0_1_27
*538 FILLER_0_1_273
*539 FILLER_0_1_279
*540 FILLER_0_1_281
*541 FILLER_0_1_293
*542 FILLER_0_1_3
*543 FILLER_0_1_305
*544 FILLER_0_1_317
*545 FILLER_0_1_329
*546 FILLER_0_1_335
*547 FILLER_0_1_337
*548 FILLER_0_1_349
*549 FILLER_0_1_361
*550 FILLER_0_1_373
*551 FILLER_0_1_385
*552 FILLER_0_1_39
*553 FILLER_0_1_391
*554 FILLER_0_1_393
*555 FILLER_0_1_405
*556 FILLER_0_1_51
*557 FILLER_0_1_55
*558 FILLER_0_1_57
*559 FILLER_0_1_69
*560 FILLER_0_1_81
*561 FILLER_0_1_93
*562 FILLER_0_20_109
*563 FILLER_0_20_121
*564 FILLER_0_20_133
*565 FILLER_0_20_139
*566 FILLER_0_20_141
*567 FILLER_0_20_15
*568 FILLER_0_20_153
*569 FILLER_0_20_165
*570 FILLER_0_20_177
*571 FILLER_0_20_189
*572 FILLER_0_20_195
*573 FILLER_0_20_197
*574 FILLER_0_20_209
*575 FILLER_0_20_221
*576 FILLER_0_20_233
*577 FILLER_0_20_245
*578 FILLER_0_20_251
*579 FILLER_0_20_253
*580 FILLER_0_20_265
*581 FILLER_0_20_27
*582 FILLER_0_20_277
*583 FILLER_0_20_289
*584 FILLER_0_20_29
*585 FILLER_0_20_3
*586 FILLER_0_20_301
*587 FILLER_0_20_307
*588 FILLER_0_20_309
*589 FILLER_0_20_321
*590 FILLER_0_20_333
*591 FILLER_0_20_345
*592 FILLER_0_20_357
*593 FILLER_0_20_363
*594 FILLER_0_20_365
*595 FILLER_0_20_377
*596 FILLER_0_20_389
*597 FILLER_0_20_401
*598 FILLER_0_20_41
*599 FILLER_0_20_53
*600 FILLER_0_20_65
*601 FILLER_0_20_77
*602 FILLER_0_20_83
*603 FILLER_0_20_85
*604 FILLER_0_20_97
*605 FILLER_0_21_105
*606 FILLER_0_21_111
*607 FILLER_0_21_113
*608 FILLER_0_21_125
*609 FILLER_0_21_137
*610 FILLER_0_21_149
*611 FILLER_0_21_15
*612 FILLER_0_21_161
*613 FILLER_0_21_167
*614 FILLER_0_21_169
*615 FILLER_0_21_181
*616 FILLER_0_21_193
*617 FILLER_0_21_205
*618 FILLER_0_21_217
*619 FILLER_0_21_223
*620 FILLER_0_21_225
*621 FILLER_0_21_237
*622 FILLER_0_21_249
*623 FILLER_0_21_261
*624 FILLER_0_21_27
*625 FILLER_0_21_273
*626 FILLER_0_21_279
*627 FILLER_0_21_281
*628 FILLER_0_21_293
*629 FILLER_0_21_3
*630 FILLER_0_21_305
*631 FILLER_0_21_317
*632 FILLER_0_21_329
*633 FILLER_0_21_335
*634 FILLER_0_21_337
*635 FILLER_0_21_349
*636 FILLER_0_21_361
*637 FILLER_0_21_373
*638 FILLER_0_21_385
*639 FILLER_0_21_39
*640 FILLER_0_21_391
*641 FILLER_0_21_393
*642 FILLER_0_21_405
*643 FILLER_0_21_51
*644 FILLER_0_21_55
*645 FILLER_0_21_57
*646 FILLER_0_21_69
*647 FILLER_0_21_81
*648 FILLER_0_21_93
*649 FILLER_0_22_109
*650 FILLER_0_22_121
*651 FILLER_0_22_133
*652 FILLER_0_22_139
*653 FILLER_0_22_141
*654 FILLER_0_22_15
*655 FILLER_0_22_153
*656 FILLER_0_22_165
*657 FILLER_0_22_177
*658 FILLER_0_22_189
*659 FILLER_0_22_195
*660 FILLER_0_22_197
*661 FILLER_0_22_209
*662 FILLER_0_22_221
*663 FILLER_0_22_233
*664 FILLER_0_22_245
*665 FILLER_0_22_251
*666 FILLER_0_22_253
*667 FILLER_0_22_265
*668 FILLER_0_22_27
*669 FILLER_0_22_277
*670 FILLER_0_22_289
*671 FILLER_0_22_29
*672 FILLER_0_22_3
*673 FILLER_0_22_301
*674 FILLER_0_22_307
*675 FILLER_0_22_309
*676 FILLER_0_22_321
*677 FILLER_0_22_333
*678 FILLER_0_22_345
*679 FILLER_0_22_357
*680 FILLER_0_22_363
*681 FILLER_0_22_365
*682 FILLER_0_22_377
*683 FILLER_0_22_389
*684 FILLER_0_22_401
*685 FILLER_0_22_41
*686 FILLER_0_22_53
*687 FILLER_0_22_65
*688 FILLER_0_22_77
*689 FILLER_0_22_83
*690 FILLER_0_22_85
*691 FILLER_0_22_97
*692 FILLER_0_23_105
*693 FILLER_0_23_111
*694 FILLER_0_23_113
*695 FILLER_0_23_125
*696 FILLER_0_23_137
*697 FILLER_0_23_149
*698 FILLER_0_23_15
*699 FILLER_0_23_161
*700 FILLER_0_23_167
*701 FILLER_0_23_169
*702 FILLER_0_23_181
*703 FILLER_0_23_193
*704 FILLER_0_23_205
*705 FILLER_0_23_217
*706 FILLER_0_23_223
*707 FILLER_0_23_225
*708 FILLER_0_23_237
*709 FILLER_0_23_249
*710 FILLER_0_23_261
*711 FILLER_0_23_27
*712 FILLER_0_23_273
*713 FILLER_0_23_279
*714 FILLER_0_23_281
*715 FILLER_0_23_293
*716 FILLER_0_23_3
*717 FILLER_0_23_305
*718 FILLER_0_23_317
*719 FILLER_0_23_329
*720 FILLER_0_23_335
*721 FILLER_0_23_337
*722 FILLER_0_23_349
*723 FILLER_0_23_361
*724 FILLER_0_23_373
*725 FILLER_0_23_385
*726 FILLER_0_23_39
*727 FILLER_0_23_391
*728 FILLER_0_23_393
*729 FILLER_0_23_405
*730 FILLER_0_23_51
*731 FILLER_0_23_55
*732 FILLER_0_23_57
*733 FILLER_0_23_69
*734 FILLER_0_23_81
*735 FILLER_0_23_93
*736 FILLER_0_24_109
*737 FILLER_0_24_121
*738 FILLER_0_24_133
*739 FILLER_0_24_139
*740 FILLER_0_24_141
*741 FILLER_0_24_15
*742 FILLER_0_24_153
*743 FILLER_0_24_165
*744 FILLER_0_24_177
*745 FILLER_0_24_189
*746 FILLER_0_24_195
*747 FILLER_0_24_197
*748 FILLER_0_24_209
*749 FILLER_0_24_221
*750 FILLER_0_24_233
*751 FILLER_0_24_245
*752 FILLER_0_24_251
*753 FILLER_0_24_253
*754 FILLER_0_24_265
*755 FILLER_0_24_27
*756 FILLER_0_24_277
*757 FILLER_0_24_289
*758 FILLER_0_24_29
*759 FILLER_0_24_3
*760 FILLER_0_24_301
*761 FILLER_0_24_307
*762 FILLER_0_24_309
*763 FILLER_0_24_321
*764 FILLER_0_24_333
*765 FILLER_0_24_345
*766 FILLER_0_24_357
*767 FILLER_0_24_363
*768 FILLER_0_24_365
*769 FILLER_0_24_377
*770 FILLER_0_24_389
*771 FILLER_0_24_401
*772 FILLER_0_24_41
*773 FILLER_0_24_53
*774 FILLER_0_24_65
*775 FILLER_0_24_77
*776 FILLER_0_24_83
*777 FILLER_0_24_85
*778 FILLER_0_24_97
*779 FILLER_0_25_105
*780 FILLER_0_25_111
*781 FILLER_0_25_113
*782 FILLER_0_25_125
*783 FILLER_0_25_137
*784 FILLER_0_25_149
*785 FILLER_0_25_15
*786 FILLER_0_25_161
*787 FILLER_0_25_167
*788 FILLER_0_25_169
*789 FILLER_0_25_181
*790 FILLER_0_25_193
*791 FILLER_0_25_205
*792 FILLER_0_25_217
*793 FILLER_0_25_223
*794 FILLER_0_25_225
*795 FILLER_0_25_237
*796 FILLER_0_25_249
*797 FILLER_0_25_261
*798 FILLER_0_25_27
*799 FILLER_0_25_273
*800 FILLER_0_25_279
*801 FILLER_0_25_281
*802 FILLER_0_25_293
*803 FILLER_0_25_3
*804 FILLER_0_25_305
*805 FILLER_0_25_317
*806 FILLER_0_25_329
*807 FILLER_0_25_335
*808 FILLER_0_25_337
*809 FILLER_0_25_349
*810 FILLER_0_25_361
*811 FILLER_0_25_373
*812 FILLER_0_25_385
*813 FILLER_0_25_39
*814 FILLER_0_25_391
*815 FILLER_0_25_393
*816 FILLER_0_25_405
*817 FILLER_0_25_51
*818 FILLER_0_25_55
*819 FILLER_0_25_57
*820 FILLER_0_25_69
*821 FILLER_0_25_81
*822 FILLER_0_25_93
*823 FILLER_0_26_109
*824 FILLER_0_26_121
*825 FILLER_0_26_133
*826 FILLER_0_26_139
*827 FILLER_0_26_141
*828 FILLER_0_26_15
*829 FILLER_0_26_153
*830 FILLER_0_26_165
*831 FILLER_0_26_177
*832 FILLER_0_26_189
*833 FILLER_0_26_195
*834 FILLER_0_26_197
*835 FILLER_0_26_209
*836 FILLER_0_26_221
*837 FILLER_0_26_233
*838 FILLER_0_26_245
*839 FILLER_0_26_251
*840 FILLER_0_26_253
*841 FILLER_0_26_265
*842 FILLER_0_26_27
*843 FILLER_0_26_277
*844 FILLER_0_26_289
*845 FILLER_0_26_29
*846 FILLER_0_26_3
*847 FILLER_0_26_301
*848 FILLER_0_26_307
*849 FILLER_0_26_309
*850 FILLER_0_26_321
*851 FILLER_0_26_333
*852 FILLER_0_26_345
*853 FILLER_0_26_357
*854 FILLER_0_26_363
*855 FILLER_0_26_365
*856 FILLER_0_26_377
*857 FILLER_0_26_389
*858 FILLER_0_26_401
*859 FILLER_0_26_41
*860 FILLER_0_26_53
*861 FILLER_0_26_65
*862 FILLER_0_26_77
*863 FILLER_0_26_83
*864 FILLER_0_26_85
*865 FILLER_0_26_97
*866 FILLER_0_27_105
*867 FILLER_0_27_111
*868 FILLER_0_27_113
*869 FILLER_0_27_125
*870 FILLER_0_27_137
*871 FILLER_0_27_149
*872 FILLER_0_27_15
*873 FILLER_0_27_161
*874 FILLER_0_27_167
*875 FILLER_0_27_169
*876 FILLER_0_27_181
*877 FILLER_0_27_193
*878 FILLER_0_27_205
*879 FILLER_0_27_217
*880 FILLER_0_27_223
*881 FILLER_0_27_225
*882 FILLER_0_27_237
*883 FILLER_0_27_249
*884 FILLER_0_27_261
*885 FILLER_0_27_27
*886 FILLER_0_27_273
*887 FILLER_0_27_279
*888 FILLER_0_27_281
*889 FILLER_0_27_293
*890 FILLER_0_27_3
*891 FILLER_0_27_305
*892 FILLER_0_27_317
*893 FILLER_0_27_329
*894 FILLER_0_27_335
*895 FILLER_0_27_337
*896 FILLER_0_27_349
*897 FILLER_0_27_361
*898 FILLER_0_27_373
*899 FILLER_0_27_385
*900 FILLER_0_27_39
*901 FILLER_0_27_391
*902 FILLER_0_27_393
*903 FILLER_0_27_405
*904 FILLER_0_27_51
*905 FILLER_0_27_55
*906 FILLER_0_27_57
*907 FILLER_0_27_69
*908 FILLER_0_27_81
*909 FILLER_0_27_93
*910 FILLER_0_28_109
*911 FILLER_0_28_121
*912 FILLER_0_28_133
*913 FILLER_0_28_139
*914 FILLER_0_28_141
*915 FILLER_0_28_15
*916 FILLER_0_28_153
*917 FILLER_0_28_165
*918 FILLER_0_28_177
*919 FILLER_0_28_197
*920 FILLER_0_28_205
*921 FILLER_0_28_223
*922 FILLER_0_28_235
*923 FILLER_0_28_247
*924 FILLER_0_28_251
*925 FILLER_0_28_253
*926 FILLER_0_28_265
*927 FILLER_0_28_27
*928 FILLER_0_28_277
*929 FILLER_0_28_289
*930 FILLER_0_28_29
*931 FILLER_0_28_3
*932 FILLER_0_28_301
*933 FILLER_0_28_307
*934 FILLER_0_28_309
*935 FILLER_0_28_321
*936 FILLER_0_28_333
*937 FILLER_0_28_345
*938 FILLER_0_28_357
*939 FILLER_0_28_363
*940 FILLER_0_28_365
*941 FILLER_0_28_377
*942 FILLER_0_28_389
*943 FILLER_0_28_401
*944 FILLER_0_28_41
*945 FILLER_0_28_53
*946 FILLER_0_28_65
*947 FILLER_0_28_77
*948 FILLER_0_28_83
*949 FILLER_0_28_85
*950 FILLER_0_28_97
*951 FILLER_0_29_105
*952 FILLER_0_29_111
*953 FILLER_0_29_113
*954 FILLER_0_29_125
*955 FILLER_0_29_137
*956 FILLER_0_29_149
*957 FILLER_0_29_15
*958 FILLER_0_29_161
*959 FILLER_0_29_167
*960 FILLER_0_29_169
*961 FILLER_0_29_177
*962 FILLER_0_29_196
*963 FILLER_0_29_225
*964 FILLER_0_29_237
*965 FILLER_0_29_249
*966 FILLER_0_29_261
*967 FILLER_0_29_27
*968 FILLER_0_29_273
*969 FILLER_0_29_279
*970 FILLER_0_29_281
*971 FILLER_0_29_293
*972 FILLER_0_29_3
*973 FILLER_0_29_305
*974 FILLER_0_29_317
*975 FILLER_0_29_329
*976 FILLER_0_29_335
*977 FILLER_0_29_337
*978 FILLER_0_29_349
*979 FILLER_0_29_361
*980 FILLER_0_29_373
*981 FILLER_0_29_385
*982 FILLER_0_29_39
*983 FILLER_0_29_391
*984 FILLER_0_29_393
*985 FILLER_0_29_405
*986 FILLER_0_29_51
*987 FILLER_0_29_55
*988 FILLER_0_29_57
*989 FILLER_0_29_69
*990 FILLER_0_29_81
*991 FILLER_0_29_93
*992 FILLER_0_2_109
*993 FILLER_0_2_121
*994 FILLER_0_2_133
*995 FILLER_0_2_139
*996 FILLER_0_2_141
*997 FILLER_0_2_15
*998 FILLER_0_2_153
*999 FILLER_0_2_165
*1000 FILLER_0_2_177
*1001 FILLER_0_2_189
*1002 FILLER_0_2_195
*1003 FILLER_0_2_197
*1004 FILLER_0_2_209
*1005 FILLER_0_2_221
*1006 FILLER_0_2_233
*1007 FILLER_0_2_245
*1008 FILLER_0_2_251
*1009 FILLER_0_2_253
*1010 FILLER_0_2_265
*1011 FILLER_0_2_27
*1012 FILLER_0_2_277
*1013 FILLER_0_2_289
*1014 FILLER_0_2_29
*1015 FILLER_0_2_3
*1016 FILLER_0_2_301
*1017 FILLER_0_2_307
*1018 FILLER_0_2_309
*1019 FILLER_0_2_321
*1020 FILLER_0_2_333
*1021 FILLER_0_2_345
*1022 FILLER_0_2_357
*1023 FILLER_0_2_363
*1024 FILLER_0_2_365
*1025 FILLER_0_2_377
*1026 FILLER_0_2_389
*1027 FILLER_0_2_401
*1028 FILLER_0_2_41
*1029 FILLER_0_2_53
*1030 FILLER_0_2_65
*1031 FILLER_0_2_77
*1032 FILLER_0_2_83
*1033 FILLER_0_2_85
*1034 FILLER_0_2_97
*1035 FILLER_0_30_109
*1036 FILLER_0_30_121
*1037 FILLER_0_30_133
*1038 FILLER_0_30_139
*1039 FILLER_0_30_141
*1040 FILLER_0_30_15
*1041 FILLER_0_30_153
*1042 FILLER_0_30_165
*1043 FILLER_0_30_193
*1044 FILLER_0_30_202
*1045 FILLER_0_30_223
*1046 FILLER_0_30_229
*1047 FILLER_0_30_253
*1048 FILLER_0_30_265
*1049 FILLER_0_30_27
*1050 FILLER_0_30_277
*1051 FILLER_0_30_289
*1052 FILLER_0_30_29
*1053 FILLER_0_30_3
*1054 FILLER_0_30_301
*1055 FILLER_0_30_307
*1056 FILLER_0_30_309
*1057 FILLER_0_30_321
*1058 FILLER_0_30_333
*1059 FILLER_0_30_345
*1060 FILLER_0_30_357
*1061 FILLER_0_30_363
*1062 FILLER_0_30_365
*1063 FILLER_0_30_377
*1064 FILLER_0_30_389
*1065 FILLER_0_30_401
*1066 FILLER_0_30_41
*1067 FILLER_0_30_53
*1068 FILLER_0_30_65
*1069 FILLER_0_30_77
*1070 FILLER_0_30_83
*1071 FILLER_0_30_85
*1072 FILLER_0_30_97
*1073 FILLER_0_31_105
*1074 FILLER_0_31_111
*1075 FILLER_0_31_113
*1076 FILLER_0_31_125
*1077 FILLER_0_31_137
*1078 FILLER_0_31_149
*1079 FILLER_0_31_15
*1080 FILLER_0_31_161
*1081 FILLER_0_31_167
*1082 FILLER_0_31_169
*1083 FILLER_0_31_181
*1084 FILLER_0_31_200
*1085 FILLER_0_31_210
*1086 FILLER_0_31_214
*1087 FILLER_0_31_225
*1088 FILLER_0_31_237
*1089 FILLER_0_31_249
*1090 FILLER_0_31_261
*1091 FILLER_0_31_27
*1092 FILLER_0_31_273
*1093 FILLER_0_31_279
*1094 FILLER_0_31_281
*1095 FILLER_0_31_293
*1096 FILLER_0_31_3
*1097 FILLER_0_31_305
*1098 FILLER_0_31_317
*1099 FILLER_0_31_329
*1100 FILLER_0_31_335
*1101 FILLER_0_31_337
*1102 FILLER_0_31_349
*1103 FILLER_0_31_361
*1104 FILLER_0_31_373
*1105 FILLER_0_31_385
*1106 FILLER_0_31_39
*1107 FILLER_0_31_391
*1108 FILLER_0_31_393
*1109 FILLER_0_31_405
*1110 FILLER_0_31_51
*1111 FILLER_0_31_55
*1112 FILLER_0_31_57
*1113 FILLER_0_31_69
*1114 FILLER_0_31_81
*1115 FILLER_0_31_93
*1116 FILLER_0_32_109
*1117 FILLER_0_32_121
*1118 FILLER_0_32_133
*1119 FILLER_0_32_139
*1120 FILLER_0_32_141
*1121 FILLER_0_32_15
*1122 FILLER_0_32_153
*1123 FILLER_0_32_165
*1124 FILLER_0_32_177
*1125 FILLER_0_32_189
*1126 FILLER_0_32_195
*1127 FILLER_0_32_197
*1128 FILLER_0_32_209
*1129 FILLER_0_32_225
*1130 FILLER_0_32_237
*1131 FILLER_0_32_249
*1132 FILLER_0_32_253
*1133 FILLER_0_32_265
*1134 FILLER_0_32_27
*1135 FILLER_0_32_277
*1136 FILLER_0_32_289
*1137 FILLER_0_32_29
*1138 FILLER_0_32_3
*1139 FILLER_0_32_301
*1140 FILLER_0_32_307
*1141 FILLER_0_32_309
*1142 FILLER_0_32_321
*1143 FILLER_0_32_333
*1144 FILLER_0_32_345
*1145 FILLER_0_32_357
*1146 FILLER_0_32_363
*1147 FILLER_0_32_365
*1148 FILLER_0_32_377
*1149 FILLER_0_32_389
*1150 FILLER_0_32_401
*1151 FILLER_0_32_41
*1152 FILLER_0_32_53
*1153 FILLER_0_32_65
*1154 FILLER_0_32_77
*1155 FILLER_0_32_83
*1156 FILLER_0_32_85
*1157 FILLER_0_32_97
*1158 FILLER_0_33_105
*1159 FILLER_0_33_111
*1160 FILLER_0_33_113
*1161 FILLER_0_33_125
*1162 FILLER_0_33_137
*1163 FILLER_0_33_149
*1164 FILLER_0_33_15
*1165 FILLER_0_33_161
*1166 FILLER_0_33_167
*1167 FILLER_0_33_169
*1168 FILLER_0_33_181
*1169 FILLER_0_33_193
*1170 FILLER_0_33_201
*1171 FILLER_0_33_208
*1172 FILLER_0_33_222
*1173 FILLER_0_33_225
*1174 FILLER_0_33_237
*1175 FILLER_0_33_249
*1176 FILLER_0_33_261
*1177 FILLER_0_33_27
*1178 FILLER_0_33_273
*1179 FILLER_0_33_279
*1180 FILLER_0_33_281
*1181 FILLER_0_33_293
*1182 FILLER_0_33_3
*1183 FILLER_0_33_305
*1184 FILLER_0_33_317
*1185 FILLER_0_33_329
*1186 FILLER_0_33_335
*1187 FILLER_0_33_337
*1188 FILLER_0_33_349
*1189 FILLER_0_33_361
*1190 FILLER_0_33_373
*1191 FILLER_0_33_385
*1192 FILLER_0_33_39
*1193 FILLER_0_33_391
*1194 FILLER_0_33_393
*1195 FILLER_0_33_405
*1196 FILLER_0_33_51
*1197 FILLER_0_33_55
*1198 FILLER_0_33_57
*1199 FILLER_0_33_69
*1200 FILLER_0_33_81
*1201 FILLER_0_33_93
*1202 FILLER_0_34_109
*1203 FILLER_0_34_121
*1204 FILLER_0_34_133
*1205 FILLER_0_34_139
*1206 FILLER_0_34_141
*1207 FILLER_0_34_15
*1208 FILLER_0_34_153
*1209 FILLER_0_34_165
*1210 FILLER_0_34_177
*1211 FILLER_0_34_189
*1212 FILLER_0_34_195
*1213 FILLER_0_34_197
*1214 FILLER_0_34_210
*1215 FILLER_0_34_220
*1216 FILLER_0_34_232
*1217 FILLER_0_34_244
*1218 FILLER_0_34_253
*1219 FILLER_0_34_265
*1220 FILLER_0_34_27
*1221 FILLER_0_34_277
*1222 FILLER_0_34_289
*1223 FILLER_0_34_29
*1224 FILLER_0_34_3
*1225 FILLER_0_34_301
*1226 FILLER_0_34_307
*1227 FILLER_0_34_309
*1228 FILLER_0_34_321
*1229 FILLER_0_34_333
*1230 FILLER_0_34_345
*1231 FILLER_0_34_357
*1232 FILLER_0_34_363
*1233 FILLER_0_34_365
*1234 FILLER_0_34_377
*1235 FILLER_0_34_389
*1236 FILLER_0_34_401
*1237 FILLER_0_34_41
*1238 FILLER_0_34_53
*1239 FILLER_0_34_65
*1240 FILLER_0_34_77
*1241 FILLER_0_34_83
*1242 FILLER_0_34_85
*1243 FILLER_0_34_97
*1244 FILLER_0_35_105
*1245 FILLER_0_35_111
*1246 FILLER_0_35_113
*1247 FILLER_0_35_125
*1248 FILLER_0_35_137
*1249 FILLER_0_35_149
*1250 FILLER_0_35_15
*1251 FILLER_0_35_161
*1252 FILLER_0_35_167
*1253 FILLER_0_35_169
*1254 FILLER_0_35_181
*1255 FILLER_0_35_193
*1256 FILLER_0_35_201
*1257 FILLER_0_35_219
*1258 FILLER_0_35_223
*1259 FILLER_0_35_225
*1260 FILLER_0_35_237
*1261 FILLER_0_35_249
*1262 FILLER_0_35_261
*1263 FILLER_0_35_27
*1264 FILLER_0_35_273
*1265 FILLER_0_35_279
*1266 FILLER_0_35_281
*1267 FILLER_0_35_293
*1268 FILLER_0_35_3
*1269 FILLER_0_35_305
*1270 FILLER_0_35_317
*1271 FILLER_0_35_329
*1272 FILLER_0_35_335
*1273 FILLER_0_35_337
*1274 FILLER_0_35_349
*1275 FILLER_0_35_361
*1276 FILLER_0_35_373
*1277 FILLER_0_35_385
*1278 FILLER_0_35_39
*1279 FILLER_0_35_391
*1280 FILLER_0_35_393
*1281 FILLER_0_35_405
*1282 FILLER_0_35_51
*1283 FILLER_0_35_55
*1284 FILLER_0_35_57
*1285 FILLER_0_35_69
*1286 FILLER_0_35_81
*1287 FILLER_0_35_93
*1288 FILLER_0_36_109
*1289 FILLER_0_36_121
*1290 FILLER_0_36_133
*1291 FILLER_0_36_139
*1292 FILLER_0_36_141
*1293 FILLER_0_36_15
*1294 FILLER_0_36_153
*1295 FILLER_0_36_165
*1296 FILLER_0_36_177
*1297 FILLER_0_36_189
*1298 FILLER_0_36_195
*1299 FILLER_0_36_197
*1300 FILLER_0_36_205
*1301 FILLER_0_36_223
*1302 FILLER_0_36_235
*1303 FILLER_0_36_247
*1304 FILLER_0_36_251
*1305 FILLER_0_36_253
*1306 FILLER_0_36_265
*1307 FILLER_0_36_27
*1308 FILLER_0_36_277
*1309 FILLER_0_36_289
*1310 FILLER_0_36_29
*1311 FILLER_0_36_3
*1312 FILLER_0_36_301
*1313 FILLER_0_36_307
*1314 FILLER_0_36_309
*1315 FILLER_0_36_321
*1316 FILLER_0_36_333
*1317 FILLER_0_36_345
*1318 FILLER_0_36_357
*1319 FILLER_0_36_363
*1320 FILLER_0_36_365
*1321 FILLER_0_36_377
*1322 FILLER_0_36_389
*1323 FILLER_0_36_401
*1324 FILLER_0_36_41
*1325 FILLER_0_36_53
*1326 FILLER_0_36_65
*1327 FILLER_0_36_77
*1328 FILLER_0_36_83
*1329 FILLER_0_36_85
*1330 FILLER_0_36_97
*1331 FILLER_0_37_105
*1332 FILLER_0_37_111
*1333 FILLER_0_37_113
*1334 FILLER_0_37_125
*1335 FILLER_0_37_137
*1336 FILLER_0_37_149
*1337 FILLER_0_37_15
*1338 FILLER_0_37_161
*1339 FILLER_0_37_167
*1340 FILLER_0_37_169
*1341 FILLER_0_37_181
*1342 FILLER_0_37_193
*1343 FILLER_0_37_205
*1344 FILLER_0_37_221
*1345 FILLER_0_37_225
*1346 FILLER_0_37_237
*1347 FILLER_0_37_249
*1348 FILLER_0_37_261
*1349 FILLER_0_37_27
*1350 FILLER_0_37_273
*1351 FILLER_0_37_279
*1352 FILLER_0_37_281
*1353 FILLER_0_37_293
*1354 FILLER_0_37_3
*1355 FILLER_0_37_305
*1356 FILLER_0_37_317
*1357 FILLER_0_37_329
*1358 FILLER_0_37_335
*1359 FILLER_0_37_337
*1360 FILLER_0_37_349
*1361 FILLER_0_37_361
*1362 FILLER_0_37_373
*1363 FILLER_0_37_385
*1364 FILLER_0_37_39
*1365 FILLER_0_37_391
*1366 FILLER_0_37_393
*1367 FILLER_0_37_405
*1368 FILLER_0_37_51
*1369 FILLER_0_37_55
*1370 FILLER_0_37_57
*1371 FILLER_0_37_69
*1372 FILLER_0_37_81
*1373 FILLER_0_37_93
*1374 FILLER_0_38_109
*1375 FILLER_0_38_121
*1376 FILLER_0_38_133
*1377 FILLER_0_38_139
*1378 FILLER_0_38_141
*1379 FILLER_0_38_15
*1380 FILLER_0_38_153
*1381 FILLER_0_38_165
*1382 FILLER_0_38_177
*1383 FILLER_0_38_189
*1384 FILLER_0_38_195
*1385 FILLER_0_38_197
*1386 FILLER_0_38_209
*1387 FILLER_0_38_221
*1388 FILLER_0_38_233
*1389 FILLER_0_38_245
*1390 FILLER_0_38_251
*1391 FILLER_0_38_253
*1392 FILLER_0_38_265
*1393 FILLER_0_38_27
*1394 FILLER_0_38_277
*1395 FILLER_0_38_289
*1396 FILLER_0_38_29
*1397 FILLER_0_38_3
*1398 FILLER_0_38_301
*1399 FILLER_0_38_307
*1400 FILLER_0_38_309
*1401 FILLER_0_38_321
*1402 FILLER_0_38_333
*1403 FILLER_0_38_345
*1404 FILLER_0_38_357
*1405 FILLER_0_38_363
*1406 FILLER_0_38_365
*1407 FILLER_0_38_377
*1408 FILLER_0_38_389
*1409 FILLER_0_38_401
*1410 FILLER_0_38_41
*1411 FILLER_0_38_53
*1412 FILLER_0_38_65
*1413 FILLER_0_38_77
*1414 FILLER_0_38_83
*1415 FILLER_0_38_85
*1416 FILLER_0_38_97
*1417 FILLER_0_39_105
*1418 FILLER_0_39_111
*1419 FILLER_0_39_113
*1420 FILLER_0_39_125
*1421 FILLER_0_39_137
*1422 FILLER_0_39_149
*1423 FILLER_0_39_15
*1424 FILLER_0_39_161
*1425 FILLER_0_39_167
*1426 FILLER_0_39_169
*1427 FILLER_0_39_181
*1428 FILLER_0_39_193
*1429 FILLER_0_39_205
*1430 FILLER_0_39_217
*1431 FILLER_0_39_223
*1432 FILLER_0_39_225
*1433 FILLER_0_39_237
*1434 FILLER_0_39_249
*1435 FILLER_0_39_261
*1436 FILLER_0_39_27
*1437 FILLER_0_39_273
*1438 FILLER_0_39_279
*1439 FILLER_0_39_281